OPT_V10/Two_days_MYC3/powerflow_results_t44.txt
Pandapower Network Debug Info
==================================================

BUS:
       vm_pu  va_degree      p_mw    q_mvar
0   0.992640   0.144369  0.001012  0.001010
1   0.987889   0.230305  0.001559  0.002010
2   0.983492   0.320532  0.002152  0.003370
3   0.988814   0.246435  0.002252  0.004375
4   0.999884   0.000720  0.010375  0.009125
5   0.999870   0.000771  0.012189  0.007856
6   0.999859   0.000888  0.011268  0.012984
7   0.999928   0.000561  0.000000  0.000000
8   0.999928   0.000568  0.000000  0.000000
9   1.000000   0.000000 -0.040969 -0.045840
10  1.000000   0.000006  0.000000  0.000000
--------------------------------------------------

LINE:
   p_from_mw  q_from_mvar   p_to_mw  q_to_mvar         pl_mw       ql_mvar  i_from_ka   i_to_ka      i_ka  vm_from_pu  va_from_degree  vm_to_pu  va_to_degree  loading_percent
0   0.040959     0.041840 -0.040956  -0.041838  3.353278e-06  2.614606e-06   0.002254  0.002254  0.002254    1.000000        0.000006  0.999928      0.000561         0.979842
1   0.033834     0.029967 -0.033832  -0.029965  1.579841e-06  1.231828e-06   0.001740  0.001740  0.001740    0.999928        0.000561  0.999884      0.000720         0.756411
2   0.007112     0.010871 -0.007033  -0.010810  7.894272e-05  6.155294e-05   0.018752  0.018752  0.018752    0.999928        0.000568  0.992640      0.144369         8.152942
3  -0.023457    -0.020840  0.023457   0.020841  3.405706e-07  2.655485e-07   0.001208  0.001208  0.001208    0.999870        0.000771  0.999884      0.000720         0.525167
4  -0.011268    -0.012984  0.011268   0.012985  1.445937e-07  1.127421e-07   0.000662  0.000662  0.000662    0.999859        0.000888  0.999870      0.000771         0.287747
5  -0.003726    -0.005392  0.003752   0.005412  2.604004e-05  2.030385e-05   0.009576  0.009576  0.009576    0.987889        0.230305  0.992640      0.144369         4.163410
6  -0.002252    -0.004375  0.002268   0.004387  1.653054e-05  1.288913e-05   0.007182  0.007182  0.007182    0.988814        0.246435  0.992640      0.144369         3.122550
7  -0.002152    -0.003370  0.002167   0.003381  1.495224e-05  1.165851e-05   0.005868  0.005868  0.005868    0.983492        0.320532  0.987889      0.230305         2.551396
--------------------------------------------------

TRAFO:
    p_hv_mw  q_hv_mvar   p_lv_mw  q_lv_mvar    pl_mw  ql_mvar   i_hv_ka   i_lv_ka  vm_hv_pu  va_hv_degree  vm_lv_pu  va_lv_degree  loading_percent
0  0.007122   0.011871 -0.007112  -0.010871  0.00001    0.001  0.000533  0.018752  0.999928      0.000561  0.999928      0.000568         0.138443
1  0.040969   0.045840 -0.040959  -0.041840  0.00001    0.004  0.000507  0.002254  1.000000      0.000000  1.000000      0.000006         0.153700
--------------------------------------------------
